<?xml version="1.0" encoding="iso-8859-1"?>

<configuration xmlns:xsi="http://www.w3.org/2001/XMLSchema-instance" xsi:noNamespaceSchemaLocation="http://sumo.sf.net/xsd/sumoConfiguration.xsd">

    <input>
        <net-file value="erlangen.net.xml"/>
        <route-files value="erlangen.rou.xml"/>
        <additional-files value="erlangen.poly.xml"/>
    </input>
    
    <output>
        <tripinfo-output value="tripinfo.out.xml" />
    </output>

    <time>
        <begin value="0"/>
        <end value="900"/>
        <step-length value="0.1"/>
    </time>

    <gui_only>
        <start value="true"/>
    </gui_only>

</configuration>
